powerfulcases/cases/matpower/case57/case57.raw
0, 100, 33, 0, 0, 60  / 28-Jan-2026 21:52:46 - MATPOWER 8.1


     1, 'Kanawha   V1',        10, 3,    1,    1, 1,        1.04,           0, 1.06, 0.94, 1.06, 0.94
     2, 'Turner    V1',        10, 2,    1,    1, 1,        1.01,       -1.18, 1.06, 0.94, 1.06, 0.94
     3, 'Logan     V1',        10, 2,    1,    1, 1,       0.985,       -5.97, 1.06, 0.94, 1.06, 0.94
     4, 'Sprigg    V1',        10, 1,    1,    1, 1,       0.981,       -7.32, 1.06, 0.94, 1.06, 0.94
     5, 'Bus 5     V1',        10, 1,    1,    1, 1,       0.976,       -8.52, 1.06, 0.94, 1.06, 0.94
     6, 'Beaver Ck V1',        10, 2,    1,    1, 1,        0.98,       -8.65, 1.06, 0.94, 1.06, 0.94
     7, 'Bus 7     V1',        10, 1,    1,    1, 1,       0.984,       -7.58, 1.06, 0.94, 1.06, 0.94
     8, 'Clinch Rv V1',        10, 2,    1,    1, 1,       1.005,       -4.45, 1.06, 0.94, 1.06, 0.94
     9, 'Saltville V1',        10, 2,    1,    1, 1,        0.98,       -9.56, 1.06, 0.94, 1.06, 0.94
    10, 'Bus 10    V1',        10, 1,    1,    1, 1,       0.986,      -11.43, 1.06, 0.94, 1.06, 0.94
    11, 'Tazewell  V1',        10, 1,    1,    1, 1,       0.974,      -10.17, 1.06, 0.94, 1.06, 0.94
    12, 'Glen Lyn  V1',        10, 2,    1,    1, 1,       1.015,      -10.46, 1.06, 0.94, 1.06, 0.94
    13, 'Bus 13    V1',        10, 1,    1,    1, 1,       0.979,       -9.79, 1.06, 0.94, 1.06, 0.94
    14, 'Bus 14    V1',        10, 1,    1,    1, 1,        0.97,       -9.33, 1.06, 0.94, 1.06, 0.94
    15, 'Bus 15    V1',        10, 1,    1,    1, 1,       0.988,       -7.18, 1.06, 0.94, 1.06, 0.94
    16, 'Bus 16    V1',        10, 1,    1,    1, 1,       1.013,       -8.85, 1.06, 0.94, 1.06, 0.94
    17, 'Bus 17    V1',        10, 1,    1,    1, 1,       1.017,       -5.39, 1.06, 0.94, 1.06, 0.94
    18, 'Sprigg    V2',        10, 1,    1,    1, 1,       1.001,      -11.71, 1.06, 0.94, 1.06, 0.94
    19, 'Bus 19    V2',        10, 1,    1,    1, 1,        0.97,       -13.2, 1.06, 0.94, 1.06, 0.94
    20, 'Bus 20    V2',        10, 1,    1,    1, 1,       0.964,      -13.41, 1.06, 0.94, 1.06, 0.94
    21, 'Bus 21    V3',        10, 1,    1,    1, 1,       1.008,      -12.89, 1.06, 0.94, 1.06, 0.94
    22, 'Bus 22    V3',        10, 1,    1,    1, 1,        1.01,      -12.84, 1.06, 0.94, 1.06, 0.94
    23, 'Bus 23    V3',        10, 1,    1,    1, 1,       1.008,      -12.91, 1.06, 0.94, 1.06, 0.94
    24, 'Bus 24    V3',        10, 1,    1,    1, 1,       0.999,      -13.25, 1.06, 0.94, 1.06, 0.94
    25, 'Bus 25    V4',        10, 1,    1,    1, 1,       0.982,      -18.13, 1.06, 0.94, 1.06, 0.94
    26, 'Bus 26    V5',        10, 1,    1,    1, 1,       0.959,      -12.95, 1.06, 0.94, 1.06, 0.94
    27, 'Bus 27    V5',        10, 1,    1,    1, 1,       0.982,      -11.48, 1.06, 0.94, 1.06, 0.94
    28, 'Bus 28    V5',        10, 1,    1,    1, 1,       0.997,      -10.45, 1.06, 0.94, 1.06, 0.94
    29, 'Bus 29    V5',        10, 1,    1,    1, 1,        1.01,       -9.75, 1.06, 0.94, 1.06, 0.94
    30, 'Bus 30    V4',        10, 1,    1,    1, 1,       0.962,      -18.68, 1.06, 0.94, 1.06, 0.94
    31, 'Bus 31    V4',        10, 1,    1,    1, 1,       0.936,      -19.34, 1.06, 0.94, 1.06, 0.94
    32, 'Bus 32    V4',        10, 1,    1,    1, 1,       0.949,      -18.46, 1.06, 0.94, 1.06, 0.94
    33, 'Bus 33    V4',        10, 1,    1,    1, 1,       0.947,       -18.5, 1.06, 0.94, 1.06, 0.94
    34, 'Bus 34    V3',        10, 1,    1,    1, 1,       0.959,       -14.1, 1.06, 0.94, 1.06, 0.94
    35, 'Bus 35    V3',        10, 1,    1,    1, 1,       0.966,      -13.86, 1.06, 0.94, 1.06, 0.94
    36, 'Bus 36    V3',        10, 1,    1,    1, 1,       0.976,      -13.59, 1.06, 0.94, 1.06, 0.94
    37, 'Bus 37    V3',        10, 1,    1,    1, 1,       0.985,      -13.41, 1.06, 0.94, 1.06, 0.94
    38, 'Bus 38    V3',        10, 1,    1,    1, 1,       1.013,      -12.71, 1.06, 0.94, 1.06, 0.94
    39, 'Bus 39    V3',        10, 1,    1,    1, 1,       0.983,      -13.46, 1.06, 0.94, 1.06, 0.94
    40, 'Bus 40    V3',        10, 1,    1,    1, 1,       0.973,      -13.62, 1.06, 0.94, 1.06, 0.94
    41, 'Tazewell  V6',        10, 1,    1,    1, 1,       0.996,      -14.05, 1.06, 0.94, 1.06, 0.94
    42, 'Bus 42    V6',        10, 1,    1,    1, 1,       0.966,       -15.5, 1.06, 0.94, 1.06, 0.94
    43, 'Tazewell  V7',        10, 1,    1,    1, 1,        1.01,      -11.33, 1.06, 0.94, 1.06, 0.94
    44, 'Bus 44    V3',        10, 1,    1,    1, 1,       1.017,      -11.86, 1.06, 0.94, 1.06, 0.94
    45, 'Bus 45    V3',        10, 1,    1,    1, 1,       1.036,       -9.25, 1.06, 0.94, 1.06, 0.94
    46, 'Bus 46    V3',        10, 1,    1,    1, 1,        1.05,      -11.89, 1.06, 0.94, 1.06, 0.94
    47, 'Bus 47    V3',        10, 1,    1,    1, 1,       1.033,      -12.49, 1.06, 0.94, 1.06, 0.94
    48, 'Bus 48    V3',        10, 1,    1,    1, 1,       1.027,      -12.59, 1.06, 0.94, 1.06, 0.94
    49, 'Bus 49    V3',        10, 1,    1,    1, 1,       1.036,      -12.92, 1.06, 0.94, 1.06, 0.94
    50, 'Bus 50    V3',        10, 1,    1,    1, 1,       1.023,      -13.39, 1.06, 0.94, 1.06, 0.94
    51, 'Bus 51    V3',        10, 1,    1,    1, 1,       1.052,      -12.52, 1.06, 0.94, 1.06, 0.94
    52, 'Bus 52    V5',        10, 1,    1,    1, 1,        0.98,      -11.47, 1.06, 0.94, 1.06, 0.94
    53, 'Bus 53    V5',        10, 1,    1,    1, 1,       0.971,      -12.23, 1.06, 0.94, 1.06, 0.94
    54, 'Bus 54    V5',        10, 1,    1,    1, 1,       0.996,      -11.69, 1.06, 0.94, 1.06, 0.94
    55, 'Saltville V5',        10, 1,    1,    1, 1,       1.031,      -10.78, 1.06, 0.94, 1.06, 0.94
    56, 'Bus 56    V6',        10, 1,    1,    1, 1,       0.968,      -16.04, 1.06, 0.94, 1.06, 0.94
    57, 'Bus 57    V6',        10, 1,    1,    1, 1,       0.965,      -16.56, 1.06, 0.94, 1.06, 0.94
0 / END OF BUS DATA, BEGIN LOAD DATA
     1,  1, 1,    1,    1,        55,        17, 0, 0, 0, 0, 1, 1, 0
     2,  1, 1,    1,    1,         3,        88, 0, 0, 0, 0, 1, 1, 0
     3,  1, 1,    1,    1,        41,        21, 0, 0, 0, 0, 1, 1, 0
     5,  1, 1,    1,    1,        13,         4, 0, 0, 0, 0, 1, 1, 0
     6,  1, 1,    1,    1,        75,         2, 0, 0, 0, 0, 1, 1, 0
     8,  1, 1,    1,    1,       150,        22, 0, 0, 0, 0, 1, 1, 0
     9,  1, 1,    1,    1,       121,        26, 0, 0, 0, 0, 1, 1, 0
    10,  1, 1,    1,    1,         5,         2, 0, 0, 0, 0, 1, 1, 0
    12,  1, 1,    1,    1,       377,        24, 0, 0, 0, 0, 1, 1, 0
    13,  1, 1,    1,    1,        18,       2.3, 0, 0, 0, 0, 1, 1, 0
    14,  1, 1,    1,    1,      10.5,       5.3, 0, 0, 0, 0, 1, 1, 0
    15,  1, 1,    1,    1,        22,         5, 0, 0, 0, 0, 1, 1, 0
    16,  1, 1,    1,    1,        43,         3, 0, 0, 0, 0, 1, 1, 0
    17,  1, 1,    1,    1,        42,         8, 0, 0, 0, 0, 1, 1, 0
    18,  1, 1,    1,    1,      27.2,       9.8, 0, 0, 0, 0, 1, 1, 0
    19,  1, 1,    1,    1,       3.3,       0.6, 0, 0, 0, 0, 1, 1, 0
    20,  1, 1,    1,    1,       2.3,         1, 0, 0, 0, 0, 1, 1, 0
    23,  1, 1,    1,    1,       6.3,       2.1, 0, 0, 0, 0, 1, 1, 0
    25,  1, 1,    1,    1,       6.3,       3.2, 0, 0, 0, 0, 1, 1, 0
    27,  1, 1,    1,    1,       9.3,       0.5, 0, 0, 0, 0, 1, 1, 0
    28,  1, 1,    1,    1,       4.6,       2.3, 0, 0, 0, 0, 1, 1, 0
    29,  1, 1,    1,    1,        17,       2.6, 0, 0, 0, 0, 1, 1, 0
    30,  1, 1,    1,    1,       3.6,       1.8, 0, 0, 0, 0, 1, 1, 0
    31,  1, 1,    1,    1,       5.8,       2.9, 0, 0, 0, 0, 1, 1, 0
    32,  1, 1,    1,    1,       1.6,       0.8, 0, 0, 0, 0, 1, 1, 0
    33,  1, 1,    1,    1,       3.8,       1.9, 0, 0, 0, 0, 1, 1, 0
    35,  1, 1,    1,    1,         6,         3, 0, 0, 0, 0, 1, 1, 0
    38,  1, 1,    1,    1,        14,         7, 0, 0, 0, 0, 1, 1, 0
    41,  1, 1,    1,    1,       6.3,         3, 0, 0, 0, 0, 1, 1, 0
    42,  1, 1,    1,    1,       7.1,       4.4, 0, 0, 0, 0, 1, 1, 0
    43,  1, 1,    1,    1,         2,         1, 0, 0, 0, 0, 1, 1, 0
    44,  1, 1,    1,    1,        12,       1.8, 0, 0, 0, 0, 1, 1, 0
    47,  1, 1,    1,    1,      29.7,      11.6, 0, 0, 0, 0, 1, 1, 0
    49,  1, 1,    1,    1,        18,       8.5, 0, 0, 0, 0, 1, 1, 0
    50,  1, 1,    1,    1,        21,      10.5, 0, 0, 0, 0, 1, 1, 0
    51,  1, 1,    1,    1,        18,       5.3, 0, 0, 0, 0, 1, 1, 0
    52,  1, 1,    1,    1,       4.9,       2.2, 0, 0, 0, 0, 1, 1, 0
    53,  1, 1,    1,    1,        20,        10, 0, 0, 0, 0, 1, 1, 0
    54,  1, 1,    1,    1,       4.1,       1.4, 0, 0, 0, 0, 1, 1, 0
    55,  1, 1,    1,    1,       6.8,       3.4, 0, 0, 0, 0, 1, 1, 0
    56,  1, 1,    1,    1,       7.6,       2.2, 0, 0, 0, 0, 1, 1, 0
    57,  1, 1,    1,    1,       6.7,         2, 0, 0, 0, 0, 1, 1, 0
0 / END OF LOAD DATA, BEGIN FIXED SHUNT DATA
    18, 1, 1,       0,      10
    25, 1, 1,       0,     5.9
    53, 1, 1,       0,     6.3
0 / END OF FIXED SHUNT DATA, BEGIN GENERATOR DATA
     1,  1,     128.9,     -16.1,       200,      -140,     1.04, 0,     100, 0, 1, 0, 0, 1, 1, 100,    575.88,         0, 1, 1, 0, 1, 0, 1, 0, 1, 0, 1
     2,  1,         0,      -0.8,        50,       -17,     1.01, 0,     100, 0, 1, 0, 0, 1, 1, 100,       100,         0, 1, 1, 0, 1, 0, 1, 0, 1, 0, 1
     3,  1,        40,        -1,        60,       -10,    0.985, 0,     100, 0, 1, 0, 0, 1, 1, 100,       140,         0, 1, 1, 0, 1, 0, 1, 0, 1, 0, 1
     6,  1,         0,       0.8,        25,        -8,     0.98, 0,     100, 0, 1, 0, 0, 1, 1, 100,       100,         0, 1, 1, 0, 1, 0, 1, 0, 1, 0, 1
     8,  1,       450,      62.1,       200,      -140,    1.005, 0,     100, 0, 1, 0, 0, 1, 1, 100,       550,         0, 1, 1, 0, 1, 0, 1, 0, 1, 0, 1
     9,  1,         0,       2.2,         9,        -3,     0.98, 0,     100, 0, 1, 0, 0, 1, 1, 100,       100,         0, 1, 1, 0, 1, 0, 1, 0, 1, 0, 1
    12,  1,       310,     128.5,       155,      -150,    1.015, 0,     100, 0, 1, 0, 0, 1, 1, 100,       410,         0, 1, 1, 0, 1, 0, 1, 0, 1, 0, 1
0 / END OF GENERATOR DATA, BEGIN BRANCH DATA
     1,      2, 1,   0.0083,    0.028,    0.129,       0,       0,       0, 0, 0, 0, 0, 1, 1, 0, 1, 1, 0, 1, 0, 1, 0, 1
     2,      3, 1,   0.0298,    0.085,   0.0818,       0,       0,       0, 0, 0, 0, 0, 1, 1, 0, 1, 1, 0, 1, 0, 1, 0, 1
     3,      4, 1,   0.0112,   0.0366,    0.038,       0,       0,       0, 0, 0, 0, 0, 1, 1, 0, 1, 1, 0, 1, 0, 1, 0, 1
     4,      5, 1,   0.0625,    0.132,   0.0258,       0,       0,       0, 0, 0, 0, 0, 1, 1, 0, 1, 1, 0, 1, 0, 1, 0, 1
     4,      6, 1,    0.043,    0.148,   0.0348,       0,       0,       0, 0, 0, 0, 0, 1, 1, 0, 1, 1, 0, 1, 0, 1, 0, 1
     6,      7, 1,     0.02,    0.102,   0.0276,       0,       0,       0, 0, 0, 0, 0, 1, 1, 0, 1, 1, 0, 1, 0, 1, 0, 1
     6,      8, 1,   0.0339,    0.173,    0.047,       0,       0,       0, 0, 0, 0, 0, 1, 1, 0, 1, 1, 0, 1, 0, 1, 0, 1
     8,      9, 1,   0.0099,   0.0505,   0.0548,       0,       0,       0, 0, 0, 0, 0, 1, 1, 0, 1, 1, 0, 1, 0, 1, 0, 1
     9,     10, 1,   0.0369,   0.1679,    0.044,       0,       0,       0, 0, 0, 0, 0, 1, 1, 0, 1, 1, 0, 1, 0, 1, 0, 1
     9,     11, 1,   0.0258,   0.0848,   0.0218,       0,       0,       0, 0, 0, 0, 0, 1, 1, 0, 1, 1, 0, 1, 0, 1, 0, 1
     9,     12, 1,   0.0648,    0.295,   0.0772,       0,       0,       0, 0, 0, 0, 0, 1, 1, 0, 1, 1, 0, 1, 0, 1, 0, 1
     9,     13, 1,   0.0481,    0.158,   0.0406,       0,       0,       0, 0, 0, 0, 0, 1, 1, 0, 1, 1, 0, 1, 0, 1, 0, 1
    13,     14, 1,   0.0132,   0.0434,    0.011,       0,       0,       0, 0, 0, 0, 0, 1, 1, 0, 1, 1, 0, 1, 0, 1, 0, 1
    13,     15, 1,   0.0269,   0.0869,    0.023,       0,       0,       0, 0, 0, 0, 0, 1, 1, 0, 1, 1, 0, 1, 0, 1, 0, 1
     1,     15, 1,   0.0178,    0.091,   0.0988,       0,       0,       0, 0, 0, 0, 0, 1, 1, 0, 1, 1, 0, 1, 0, 1, 0, 1
     1,     16, 1,   0.0454,    0.206,   0.0546,       0,       0,       0, 0, 0, 0, 0, 1, 1, 0, 1, 1, 0, 1, 0, 1, 0, 1
     1,     17, 1,   0.0238,    0.108,   0.0286,       0,       0,       0, 0, 0, 0, 0, 1, 1, 0, 1, 1, 0, 1, 0, 1, 0, 1
     3,     15, 1,   0.0162,    0.053,   0.0544,       0,       0,       0, 0, 0, 0, 0, 1, 1, 0, 1, 1, 0, 1, 0, 1, 0, 1
     5,      6, 1,   0.0302,   0.0641,   0.0124,       0,       0,       0, 0, 0, 0, 0, 1, 1, 0, 1, 1, 0, 1, 0, 1, 0, 1
     7,      8, 1,   0.0139,   0.0712,   0.0194,       0,       0,       0, 0, 0, 0, 0, 1, 1, 0, 1, 1, 0, 1, 0, 1, 0, 1
    10,     12, 1,   0.0277,   0.1262,   0.0328,       0,       0,       0, 0, 0, 0, 0, 1, 1, 0, 1, 1, 0, 1, 0, 1, 0, 1
    11,     13, 1,   0.0223,   0.0732,   0.0188,       0,       0,       0, 0, 0, 0, 0, 1, 1, 0, 1, 1, 0, 1, 0, 1, 0, 1
    12,     13, 1,   0.0178,    0.058,   0.0604,       0,       0,       0, 0, 0, 0, 0, 1, 1, 0, 1, 1, 0, 1, 0, 1, 0, 1
    12,     16, 1,    0.018,   0.0813,   0.0216,       0,       0,       0, 0, 0, 0, 0, 1, 1, 0, 1, 1, 0, 1, 0, 1, 0, 1
    12,     17, 1,   0.0397,    0.179,   0.0476,       0,       0,       0, 0, 0, 0, 0, 1, 1, 0, 1, 1, 0, 1, 0, 1, 0, 1
    14,     15, 1,   0.0171,   0.0547,   0.0148,       0,       0,       0, 0, 0, 0, 0, 1, 1, 0, 1, 1, 0, 1, 0, 1, 0, 1
    18,     19, 1,    0.461,    0.685,        0,       0,       0,       0, 0, 0, 0, 0, 1, 1, 0, 1, 1, 0, 1, 0, 1, 0, 1
    19,     20, 1,    0.283,    0.434,        0,       0,       0,       0, 0, 0, 0, 0, 1, 1, 0, 1, 1, 0, 1, 0, 1, 0, 1
    21,     22, 1,   0.0736,    0.117,        0,       0,       0,       0, 0, 0, 0, 0, 1, 1, 0, 1, 1, 0, 1, 0, 1, 0, 1
    22,     23, 1,   0.0099,   0.0152,        0,       0,       0,       0, 0, 0, 0, 0, 1, 1, 0, 1, 1, 0, 1, 0, 1, 0, 1
    23,     24, 1,    0.166,    0.256,   0.0084,       0,       0,       0, 0, 0, 0, 0, 1, 1, 0, 1, 1, 0, 1, 0, 1, 0, 1
    26,     27, 1,    0.165,    0.254,        0,       0,       0,       0, 0, 0, 0, 0, 1, 1, 0, 1, 1, 0, 1, 0, 1, 0, 1
    27,     28, 1,   0.0618,   0.0954,        0,       0,       0,       0, 0, 0, 0, 0, 1, 1, 0, 1, 1, 0, 1, 0, 1, 0, 1
    28,     29, 1,   0.0418,   0.0587,        0,       0,       0,       0, 0, 0, 0, 0, 1, 1, 0, 1, 1, 0, 1, 0, 1, 0, 1
    25,     30, 1,    0.135,    0.202,        0,       0,       0,       0, 0, 0, 0, 0, 1, 1, 0, 1, 1, 0, 1, 0, 1, 0, 1
    30,     31, 1,    0.326,    0.497,        0,       0,       0,       0, 0, 0, 0, 0, 1, 1, 0, 1, 1, 0, 1, 0, 1, 0, 1
    31,     32, 1,    0.507,    0.755,        0,       0,       0,       0, 0, 0, 0, 0, 1, 1, 0, 1, 1, 0, 1, 0, 1, 0, 1
    32,     33, 1,   0.0392,    0.036,        0,       0,       0,       0, 0, 0, 0, 0, 1, 1, 0, 1, 1, 0, 1, 0, 1, 0, 1
    34,     35, 1,    0.052,    0.078,   0.0032,       0,       0,       0, 0, 0, 0, 0, 1, 1, 0, 1, 1, 0, 1, 0, 1, 0, 1
    35,     36, 1,    0.043,   0.0537,   0.0016,       0,       0,       0, 0, 0, 0, 0, 1, 1, 0, 1, 1, 0, 1, 0, 1, 0, 1
    36,     37, 1,    0.029,   0.0366,        0,       0,       0,       0, 0, 0, 0, 0, 1, 1, 0, 1, 1, 0, 1, 0, 1, 0, 1
    37,     38, 1,   0.0651,   0.1009,    0.002,       0,       0,       0, 0, 0, 0, 0, 1, 1, 0, 1, 1, 0, 1, 0, 1, 0, 1
    37,     39, 1,   0.0239,   0.0379,        0,       0,       0,       0, 0, 0, 0, 0, 1, 1, 0, 1, 1, 0, 1, 0, 1, 0, 1
    36,     40, 1,     0.03,   0.0466,        0,       0,       0,       0, 0, 0, 0, 0, 1, 1, 0, 1, 1, 0, 1, 0, 1, 0, 1
    22,     38, 1,   0.0192,   0.0295,        0,       0,       0,       0, 0, 0, 0, 0, 1, 1, 0, 1, 1, 0, 1, 0, 1, 0, 1
    41,     42, 1,    0.207,    0.352,        0,       0,       0,       0, 0, 0, 0, 0, 1, 1, 0, 1, 1, 0, 1, 0, 1, 0, 1
    41,     43, 1,        0,    0.412,        0,       0,       0,       0, 0, 0, 0, 0, 1, 1, 0, 1, 1, 0, 1, 0, 1, 0, 1
    38,     44, 1,   0.0289,   0.0585,    0.002,       0,       0,       0, 0, 0, 0, 0, 1, 1, 0, 1, 1, 0, 1, 0, 1, 0, 1
    46,     47, 1,    0.023,    0.068,   0.0032,       0,       0,       0, 0, 0, 0, 0, 1, 1, 0, 1, 1, 0, 1, 0, 1, 0, 1
    47,     48, 1,   0.0182,   0.0233,        0,       0,       0,       0, 0, 0, 0, 0, 1, 1, 0, 1, 1, 0, 1, 0, 1, 0, 1
    48,     49, 1,   0.0834,    0.129,   0.0048,       0,       0,       0, 0, 0, 0, 0, 1, 1, 0, 1, 1, 0, 1, 0, 1, 0, 1
    49,     50, 1,   0.0801,    0.128,        0,       0,       0,       0, 0, 0, 0, 0, 1, 1, 0, 1, 1, 0, 1, 0, 1, 0, 1
    50,     51, 1,   0.1386,     0.22,        0,       0,       0,       0, 0, 0, 0, 0, 1, 1, 0, 1, 1, 0, 1, 0, 1, 0, 1
    29,     52, 1,   0.1442,    0.187,        0,       0,       0,       0, 0, 0, 0, 0, 1, 1, 0, 1, 1, 0, 1, 0, 1, 0, 1
    52,     53, 1,   0.0762,   0.0984,        0,       0,       0,       0, 0, 0, 0, 0, 1, 1, 0, 1, 1, 0, 1, 0, 1, 0, 1
    53,     54, 1,   0.1878,    0.232,        0,       0,       0,       0, 0, 0, 0, 0, 1, 1, 0, 1, 1, 0, 1, 0, 1, 0, 1
    54,     55, 1,   0.1732,   0.2265,        0,       0,       0,       0, 0, 0, 0, 0, 1, 1, 0, 1, 1, 0, 1, 0, 1, 0, 1
    44,     45, 1,   0.0624,   0.1242,    0.004,       0,       0,       0, 0, 0, 0, 0, 1, 1, 0, 1, 1, 0, 1, 0, 1, 0, 1
    56,     41, 1,    0.553,    0.549,        0,       0,       0,       0, 0, 0, 0, 0, 1, 1, 0, 1, 1, 0, 1, 0, 1, 0, 1
    56,     42, 1,   0.2125,    0.354,        0,       0,       0,       0, 0, 0, 0, 0, 1, 1, 0, 1, 1, 0, 1, 0, 1, 0, 1
    57,     56, 1,    0.174,     0.26,        0,       0,       0,       0, 0, 0, 0, 0, 1, 1, 0, 1, 1, 0, 1, 0, 1, 0, 1
    38,     49, 1,    0.115,    0.177,    0.003,       0,       0,       0, 0, 0, 0, 0, 1, 1, 0, 1, 1, 0, 1, 0, 1, 0, 1
    38,     48, 1,   0.0312,   0.0482,        0,       0,       0,       0, 0, 0, 0, 0, 1, 1, 0, 1, 1, 0, 1, 0, 1, 0, 1
0 / END OF BRANCH DATA, BEGIN TRANSFORMER DATA
     4,     18, 0, 1, 1, 1, 1, 0, 0, 2, '            ', 1, 1, 1, 0, 1, 0, 1, 0, 1, '            '
0, 0.555, 100
 0.97, 0,     0,       0,       0,       0, 0, 0, 1.1, 0.9, 1.1, 0.9, 33, 0, 0, 0, 0
    1, 0
     4,     18, 0, 2, 1, 1, 1, 0, 0, 2, '            ', 1, 1, 1, 0, 1, 0, 1, 0, 1, '            '
0, 0.43, 100
0.978, 0,     0,       0,       0,       0, 0, 0, 1.1, 0.9, 1.1, 0.9, 33, 0, 0, 0, 0
    1, 0
    21,     20, 0, 1, 1, 1, 1, 0, 0, 2, '            ', 1, 1, 1, 0, 1, 0, 1, 0, 1, '            '
0, 0.7767, 100
1.043, 0,     0,       0,       0,       0, 0, 0, 1.1, 0.9, 1.1, 0.9, 33, 0, 0, 0, 0
    1, 0
    24,     25, 0, 1, 1, 1, 1, 0, 0, 2, '            ', 1, 1, 1, 0, 1, 0, 1, 0, 1, '            '
0, 1.182, 100
    1, 0,     0,       0,       0,       0, 0, 0, 1.1, 0.9, 1.1, 0.9, 33, 0, 0, 0, 0
    1, 0
    24,     25, 0, 2, 1, 1, 1, 0, 0, 2, '            ', 1, 1, 1, 0, 1, 0, 1, 0, 1, '            '
0, 1.23, 100
    1, 0,     0,       0,       0,       0, 0, 0, 1.1, 0.9, 1.1, 0.9, 33, 0, 0, 0, 0
    1, 0
    24,     26, 0, 1, 1, 1, 1, 0, 0, 2, '            ', 1, 1, 1, 0, 1, 0, 1, 0, 1, '            '
0, 0.0473, 100
1.043, 0,     0,       0,       0,       0, 0, 0, 1.1, 0.9, 1.1, 0.9, 33, 0, 0, 0, 0
    1, 0
     7,     29, 0, 1, 1, 1, 1, 0, 0, 2, '            ', 1, 1, 1, 0, 1, 0, 1, 0, 1, '            '
0, 0.0648, 100
0.967, 0,     0,       0,       0,       0, 0, 0, 1.1, 0.9, 1.1, 0.9, 33, 0, 0, 0, 0
    1, 0
    34,     32, 0, 1, 1, 1, 1, 0, 0, 2, '            ', 1, 1, 1, 0, 1, 0, 1, 0, 1, '            '
0, 0.953, 100
0.975, 0,     0,       0,       0,       0, 0, 0, 1.1, 0.9, 1.1, 0.9, 33, 0, 0, 0, 0
    1, 0
    11,     41, 0, 1, 1, 1, 1, 0, 0, 2, '            ', 1, 1, 1, 0, 1, 0, 1, 0, 1, '            '
0, 0.749, 100
0.955, 0,     0,       0,       0,       0, 0, 0, 1.1, 0.9, 1.1, 0.9, 33, 0, 0, 0, 0
    1, 0
    15,     45, 0, 1, 1, 1, 1, 0, 0, 2, '            ', 1, 1, 1, 0, 1, 0, 1, 0, 1, '            '
0, 0.1042, 100
0.955, 0,     0,       0,       0,       0, 0, 0, 1.1, 0.9, 1.1, 0.9, 33, 0, 0, 0, 0
    1, 0
    14,     46, 0, 1, 1, 1, 1, 0, 0, 2, '            ', 1, 1, 1, 0, 1, 0, 1, 0, 1, '            '
0, 0.0735, 100
  0.9, 0,     0,       0,       0,       0, 0, 0, 1.1, 0.9, 1.1, 0.9, 33, 0, 0, 0, 0
    1, 0
    10,     51, 0, 1, 1, 1, 1, 0, 0, 2, '            ', 1, 1, 1, 0, 1, 0, 1, 0, 1, '            '
0, 0.0712, 100
 0.93, 0,     0,       0,       0,       0, 0, 0, 1.1, 0.9, 1.1, 0.9, 33, 0, 0, 0, 0
    1, 0
    13,     49, 0, 1, 1, 1, 1, 0, 0, 2, '            ', 1, 1, 1, 0, 1, 0, 1, 0, 1, '            '
0, 0.191, 100
0.895, 0,     0,       0,       0,       0, 0, 0, 1.1, 0.9, 1.1, 0.9, 33, 0, 0, 0, 0
    1, 0
    11,     43, 0, 1, 1, 1, 1, 0, 0, 2, '            ', 1, 1, 1, 0, 1, 0, 1, 0, 1, '            '
0, 0.153, 100
0.958, 0,     0,       0,       0,       0, 0, 0, 1.1, 0.9, 1.1, 0.9, 33, 0, 0, 0, 0
    1, 0
    40,     56, 0, 1, 1, 1, 1, 0, 0, 2, '            ', 1, 1, 1, 0, 1, 0, 1, 0, 1, '            '
0, 1.195, 100
0.958, 0,     0,       0,       0,       0, 0, 0, 1.1, 0.9, 1.1, 0.9, 33, 0, 0, 0, 0
    1, 0
    39,     57, 0, 1, 1, 1, 1, 0, 0, 2, '            ', 1, 1, 1, 0, 1, 0, 1, 0, 1, '            '
0, 1.355, 100
 0.98, 0,     0,       0,       0,       0, 0, 0, 1.1, 0.9, 1.1, 0.9, 33, 0, 0, 0, 0
    1, 0
     9,     55, 0, 1, 1, 1, 1, 0, 0, 2, '            ', 1, 1, 1, 0, 1, 0, 1, 0, 1, '            '
0, 0.1205, 100
 0.94, 0,     0,       0,       0,       0, 0, 0, 1.1, 0.9, 1.1, 0.9, 33, 0, 0, 0, 0
    1, 0
0 / END OF TRANSFORMER DATA, BEGIN AREA DATA
0 / END OF AREA DATA, BEGIN TWO-TERMINAL DC DATA
0 / END OF TWO-TERMINAL DC DATA, BEGIN VOLTAGE SOURCE CONVERTER DATA
0 / END OF VOLTAGE SOURCE CONVERTER DATA, BEGIN IMPEDANCE CORRECTION DATA
0 / END OF IMPEDANCE CORRECTION DATA, BEGIN MULTI-TERMINAL DC DATA
0 / END OF MULTI-TERMINAL DC DATA, BEGIN MULTI-SECTION LINE DATA
0 / END OF MULTI-SECTION LINE DATA, BEGIN ZONE DATA
0 / END OF ZONE DATA, BEGIN INTER-AREA TRANSFER DATA
0 / END OF INTER-AREA TRANSFER DATA, BEGIN OWNER DATA
0 / END OF OWNER DATA, BEGIN FACTS CONTROL DEVICE DATA
0 / END OF FACTS CONTROL DEVICE DATA, BEGIN SWITCHED SHUNT DATA
0 / END OF SWITCHED SHUNT DATA, BEGIN GNE DEVICE DATA
0 / END OF GNE DEVICE DATA, BEGIN INDUCTION MACHINE DATA
0 / END OF INDUCTION MACHINE DATA
Q
